# Name: KNJ
# Created by ModelServer 0.9.9

# model_server_result.job_id: Gds_ZfY319aj-RMS2kF4Ow
# model_server_result.datetime_utc: 2023-08-28 01:59:12
# model_server_result.server_version: 0.9.9
# model_server_result.query_name: ligand
# model_server_result.source_id: pdb-bcif
# model_server_result.entry_id: 3a2o

# model_server_params.name: atom_site
# model_server_params.value: {"label_asym_id":"D","auth_seq_id":999}

# model_server_stats.io_time_ms: 4
# model_server_stats.parse_time_ms: 46
# model_server_stats.create_model_time_ms: 5
# model_server_stats.query_time_ms: 196
# model_server_stats.encode_time_ms: 0
# model_server_stats.element_count: 158

@<TRIPOS>MOLECULE
KNJ
79 81 1
****
****

@<TRIPOS>ATOM
1 C1 12.713 17.785 21.451 C.3 1 KNJ 0.000
2 C2 11.765 17.547 20.317 C.ar 1 KNJ 0.000
3 C3 10.790 16.543 20.380 C.ar 1 KNJ 0.000
4 C4 9.902 16.285 19.357 C.ar 1 KNJ 0.000
5 C7 10.976 18.091 18.094 C.ar 1 KNJ 0.000
6 N1 8.967 15.308 19.453 N.pl3 1 KNJ 0.000
7 C5 10.022 17.080 18.221 C.ar 1 KNJ 0.000
8 C6 11.024 18.907 16.834 C.3 1 KNJ 0.000
9 C8 11.846 18.315 19.180 C.ar 1 KNJ 0.000
10 O1 12.777 19.314 19.047 O.3 1 KNJ 0.000
11 C9 14.024 18.815 18.606 C.3 1 KNJ 0.000
12 C10 14.922 19.988 18.190 C.2 1 KNJ 0.000
13 O6 16.137 19.762 18.070 O.2 1 KNJ 0.000
14 C20 16.569 24.132 18.514 C.2 1 KNJ 0.000
15 N3 14.366 21.179 17.983 N.am 1 KNJ 0.000
16 O4 16.597 25.177 17.848 O.2 1 KNJ 0.000
17 C19 15.281 23.349 18.688 C.3 1 KNJ 0.000
18 C13 14.306 21.914 15.210 C.ar 1 KNJ 0.000
19 C12 14.525 22.934 16.282 C.3 1 KNJ 0.000
20 C16 13.905 19.876 13.350 C.ar 1 KNJ 0.000
21 C11 15.137 22.317 17.539 C.3 1 KNJ 0.000
22 O2 14.164 24.182 18.692 O.3 1 KNJ 0.000
23 C14 15.384 21.400 14.450 C.ar 1 KNJ 0.000
24 C18 13.029 21.413 14.990 C.ar 1 KNJ 0.000
25 C15 15.157 20.395 13.523 C.ar 1 KNJ 0.000
26 C17 12.861 20.375 14.045 C.ar 1 KNJ 0.000
27 C26 19.478 24.145 17.467 C.2 1 KNJ 0.000
28 N4 17.686 23.637 19.054 N.am 1 KNJ 0.000
29 O5 19.248 23.111 16.840 O.2 1 KNJ 0.000
30 C21 18.955 24.356 18.885 C.3 1 KNJ 0.000
31 C22 19.873 23.838 20.024 C.3 1 KNJ 0.000
32 C25 17.746 22.422 19.890 C.3 1 KNJ 0.000
33 C23 21.342 24.034 19.727 C.3 1 KNJ 0.000
34 C24 19.478 24.550 21.329 C.3 1 KNJ 0.000
35 S2 19.483 22.070 20.124 S.3 1 KNJ 0.000
36 N5 20.156 25.171 16.961 N.am 1 KNJ 0.000
37 C27 20.701 25.169 15.594 C.3 1 KNJ 0.000
38 C28 19.826 26.003 14.683 C.2 1 KNJ 0.000
39 C30 18.437 25.516 14.455 C.3 1 KNJ 0.000
40 C29 20.338 27.131 14.125 C.2 1 KNJ 0.000
41 H1 12.571 17.122 22.131 H 1 KNJ 0.000
42 H1A 12.559 18.658 21.819 H 1 KNJ 0.000
43 H1B 13.616 17.727 21.131 H 1 KNJ 0.000
44 H3 10.739 16.025 21.151 H 1 KNJ 0.000
45 HN1 8.917 14.830 20.166 H 1 KNJ 0.000
46 HN1A 8.424 15.167 18.801 H 1 KNJ 0.000
47 H5 9.438 16.931 17.513 H 1 KNJ 0.000
48 H6 10.136 19.002 16.480 H 1 KNJ 0.000
49 H6A 11.580 18.465 16.188 H 1 KNJ 0.000
50 H6B 11.386 19.774 17.028 H 1 KNJ 0.000
51 H9 13.891 18.220 17.852 H 1 KNJ 0.000
52 H9A 14.448 18.313 19.319 H 1 KNJ 0.000
53 HN3 13.522 21.274 18.117 H 1 KNJ 0.000
54 H19 15.318 22.868 19.540 H 1 KNJ 0.000
55 H12 13.677 23.347 16.508 H 1 KNJ 0.000
56 H12A 15.115 23.628 15.947 H 1 KNJ 0.000
57 H16 13.772 19.178 12.750 H 1 KNJ 0.000
58 H11 16.034 21.998 17.309 H 1 KNJ 0.000
59 H14 16.243 21.736 14.572 H 1 KNJ 0.000
60 H18 12.299 21.755 15.454 H 1 KNJ 0.000
61 H15 15.864 20.070 13.014 H 1 KNJ 0.000
62 H17 12.011 20.027 13.900 H 1 KNJ 0.000
63 H21 18.794 25.313 19.022 H 1 KNJ 0.000
64 H25 17.306 21.681 19.445 H 1 KNJ 0.000
65 H25A 17.312 22.575 20.743 H 1 KNJ 0.000
66 H23 21.549 23.653 18.871 H 1 KNJ 0.000
67 H23A 21.865 23.602 20.405 H 1 KNJ 0.000
68 H23B 21.543 24.973 19.717 H 1 KNJ 0.000
69 H24 18.550 24.388 21.514 H 1 KNJ 0.000
70 H24A 19.626 25.494 21.237 H 1 KNJ 0.000
71 H24B 20.011 24.211 22.052 H 1 KNJ 0.000
72 HN5 20.281 25.865 17.454 H 1 KNJ 0.000
73 H27 20.744 24.259 15.262 H 1 KNJ 0.000
74 H27A 21.601 25.531 15.602 H 1 KNJ 0.000
75 H30 18.456 24.580 14.241 H 1 KNJ 0.000
76 H30A 18.042 26.002 13.727 H 1 KNJ 0.000
77 H30B 17.916 25.652 15.250 H 1 KNJ 0.000
78 H29 21.214 27.383 14.306 H 1 KNJ 0.000
79 H29A 19.811 27.652 13.563 H 1 KNJ 0.000
@<TRIPOS>BOND
1 1 2 1
2 1 41 1
3 1 42 1
4 1 43 1
5 2 3 ar
6 2 9 ar
7 3 4 ar
8 3 44 1
9 4 7 ar
10 4 6 1
11 5 8 1
12 5 7 ar
13 5 9 ar
14 6 45 1
15 6 46 1
16 7 47 1
17 8 48 1
18 8 49 1
19 8 50 1
20 9 10 1
21 10 11 1
22 11 12 1
23 11 51 1
24 11 52 1
25 12 13 2
26 12 15 1
27 14 17 1
28 14 16 2
29 14 28 1
30 15 21 1
31 15 53 1
32 17 21 1
33 17 22 1
34 17 54 1
35 18 19 1
36 18 23 ar
37 18 24 ar
38 19 21 1
39 19 55 1
40 19 56 1
41 20 25 ar
42 20 26 ar
43 20 57 1
44 21 58 1
45 23 25 ar
46 23 59 1
47 24 26 ar
48 24 60 1
49 25 61 1
50 26 62 1
51 27 30 1
52 27 29 2
53 27 36 1
54 28 32 1
55 28 30 1
56 30 31 1
57 30 63 1
58 31 35 1
59 31 34 1
60 31 33 1
61 32 35 1
62 32 64 1
63 32 65 1
64 33 66 1
65 33 67 1
66 33 68 1
67 34 69 1
68 34 70 1
69 34 71 1
70 36 37 1
71 36 72 1
72 37 38 1
73 37 73 1
74 37 74 1
75 38 39 1
76 38 40 2
77 39 75 1
78 39 76 1
79 39 77 1
80 40 78 1
81 40 79 1
@<TRIPOS>SUBSTRUCTURE
1 KNJ 1
