# Name: FMM
# Created by ModelServer 0.9.10

# model_server_result.job_id: 9mLquboXguTG_fjb0kW1hw
# model_server_result.datetime_utc: 2023-11-02 08:00:05
# model_server_result.server_version: 0.9.10
# model_server_result.query_name: ligand
# model_server_result.source_id: pdb-bcif
# model_server_result.entry_id: 3bbt

# model_server_params.name: atom_site
# model_server_params.value: {"label_asym_id":"C","auth_seq_id":91}

# model_server_stats.io_time_ms: 14
# model_server_stats.parse_time_ms: 45
# model_server_stats.create_model_time_ms: 7
# model_server_stats.query_time_ms: 287
# model_server_stats.encode_time_ms: 0
# model_server_stats.element_count: 27

@<TRIPOS>MOLECULE
FMM
27 30 1
****
****

@<TRIPOS>ATOM
1 C14 -43.107 47.930 15.828 C.ar 1 FMM 0.000
2 C15 -43.982 47.969 14.741 C.ar 1 FMM 0.000
3 C16 -43.624 48.664 13.586 C.ar 1 FMM 0.000
4 C17 -42.392 49.315 13.518 C.ar 1 FMM 0.000
5 N18 -42.042 49.988 12.397 N.ar 1 FMM 0.000
6 C19 -40.859 50.619 12.322 C.ar 1 FMM 0.000
7 N20 -39.996 50.598 13.352 N.ar 1 FMM 0.000
8 C21 -40.288 49.941 14.504 C.ar 1 FMM 0.000
9 N22 -39.409 49.924 15.549 N.pl3 1 FMM 0.000
10 C23 -38.157 50.566 15.528 C.ar 1 FMM 0.000
11 C24 -36.988 49.807 15.543 C.ar 1 FMM 0.000
12 C25 -35.746 50.442 15.529 C.ar 1 FMM 0.000
13 C26 -35.663 51.838 15.507 C.ar 1 FMM 0.000
14 O27 -34.446 52.478 15.485 O.3 1 FMM 0.000
15 C28 -33.419 52.222 16.444 C.3 1 FMM 0.000
16 C29 -32.119 51.893 15.740 C.ar 1 FMM 0.000
17 C30 -31.875 52.343 14.440 C.ar 1 FMM 0.000
18 C31 -30.675 52.034 13.801 C.ar 1 FMM 0.000
19 C32 -29.712 51.273 14.462 C.ar 1 FMM 0.000
20 C33 -29.953 50.823 15.759 C.ar 1 FMM 0.000
21 F34 -29.024 50.090 16.396 F 1 FMM 0.000
22 C35 -31.152 51.134 16.398 C.ar 1 FMM 0.000
23 C36 -36.827 52.595 15.493 C.ar 1 FMM 0.000
24 CL3 -36.732 54.390 15.460 CL 1 FMM 0.000
25 C38 -38.070 51.961 15.508 C.ar 1 FMM 0.000
26 C39 -41.514 49.277 14.605 C.ar 1 FMM 0.000
27 C40 -41.875 48.582 15.763 C.ar 1 FMM 0.000
@<TRIPOS>BOND
1 1 2 ar
2 1 27 ar
3 2 3 ar
4 3 4 ar
5 4 5 ar
6 4 26 ar
7 5 6 ar
8 6 7 ar
9 7 8 ar
10 8 9 1
11 8 26 ar
12 9 10 1
13 10 11 ar
14 10 25 ar
15 11 12 ar
16 12 13 ar
17 13 14 1
18 13 23 ar
19 14 15 1
20 15 16 1
21 16 17 ar
22 16 22 ar
23 17 18 ar
24 18 19 ar
25 19 20 ar
26 20 21 1
27 20 22 ar
28 23 24 1
29 23 25 ar
30 26 27 ar
@<TRIPOS>SUBSTRUCTURE
1 FMM 1
