# Name: T27
# Created by ModelServer 0.9.9

# model_server_result.job_id: S-bhX9C_k7LaLzp7O0ny-g
# model_server_result.datetime_utc: 2023-08-28 02:04:37
# model_server_result.server_version: 0.9.9
# model_server_result.query_name: ligand
# model_server_result.source_id: pdb-bcif
# model_server_result.entry_id: 4g1q

# model_server_params.name: atom_site
# model_server_params.value: {"label_asym_id":"C","auth_seq_id":601}

# model_server_stats.io_time_ms: 12
# model_server_stats.parse_time_ms: 91
# model_server_stats.create_model_time_ms: 48
# model_server_stats.query_time_ms: 321
# model_server_stats.encode_time_ms: 1
# model_server_stats.element_count: 46

@<TRIPOS>MOLECULE
T27
46 48 1
****
****

@<TRIPOS>ATOM
1 C1 49.264 -24.894 38.260 C.ar 1 T27 0.000
2 N2 52.303 -25.589 33.385 N.ar 1 T27 0.000
3 C3 48.671 -26.906 39.422 C.ar 1 T27 0.000
4 C4 49.922 -27.376 39.188 C.ar 1 T27 0.000
5 C5 50.868 -26.640 38.518 C.ar 1 T27 0.000
6 C6 50.537 -25.404 38.043 C.ar 1 T27 0.000
7 C7 48.950 -23.539 37.741 C.3 1 T27 0.000
8 C2 48.311 -25.651 38.950 C.ar 1 T27 0.000
9 C8 52.228 -27.230 38.339 C.3 1 T27 0.000
10 N1 51.543 -24.664 37.359 N.pl3 1 T27 0.000
11 C9 52.832 -24.483 33.898 C.ar 1 T27 0.000
12 C10 52.583 -24.134 35.227 C.ar 1 T27 0.000
13 C11 51.834 -24.983 36.023 C.ar 1 T27 0.000
14 N3 51.364 -26.126 35.500 N.ar 1 T27 0.000
15 C12 51.627 -26.387 34.219 C.cat 1 T27 0.000
16 N4 51.126 -27.541 33.621 N.pl3 1 T27 0.000
17 C13 49.175 -30.870 35.208 C.ar 1 T27 0.000
18 C14 49.608 -30.831 33.905 C.ar 1 T27 0.000
19 C15 50.250 -29.709 33.446 C.ar 1 T27 0.000
20 C16 50.450 -28.598 34.273 C.ar 1 T27 0.000
21 C17 49.990 -28.628 35.567 C.ar 1 T27 0.000
22 C18 49.357 -29.778 36.018 C.ar 1 T27 0.000
23 N5 47.993 -33.040 36.121 N.1 1 T27 0.000
24 C19 48.499 -32.084 35.747 C.1 1 T27 0.000
25 C20 46.775 -27.331 40.914 C.2 1 T27 0.000
26 C21 47.774 -27.840 40.171 C.2 1 T27 0.000
27 N6 45.331 -28.964 42.368 N.1 1 T27 0.000
28 C22 45.979 -28.239 41.780 C.1 1 T27 0.000
29 H4 50.165 -28.252 39.526 H 1 T27 0.000
30 H7 49.754 -23.131 37.373 H 1 T27 0.000
31 H7A 48.599 -22.976 38.455 H 1 T27 0.000
32 H7B 48.282 -23.625 37.039 H 1 T27 0.000
33 H2 47.418 -25.303 39.099 H 1 T27 0.000
34 H8 52.749 -26.672 37.734 H 1 T27 0.000
35 H8A 52.134 -28.119 37.955 H 1 T27 0.000
36 H8B 52.685 -27.293 39.197 H 1 T27 0.000
37 HN1 51.976 -23.982 37.772 H 1 T27 0.000
38 H9 53.346 -23.885 33.329 H 1 T27 0.000
39 H10 52.937 -23.307 35.588 H 1 T27 0.000
40 HN4 51.047 -27.519 32.714 H 1 T27 0.000
41 H14 49.500 -31.603 33.328 H 1 T27 0.000
42 H15 50.568 -29.683 32.531 H 1 T27 0.000
43 H17 50.121 -27.871 36.158 H 1 T27 0.000
44 H18 49.048 -29.817 36.936 H 1 T27 0.000
45 H20 46.492 -26.414 40.782 H 1 T27 0.000
46 H21 48.081 -28.740 40.355 H 1 T27 0.000
@<TRIPOS>BOND
1 1 6 ar
2 1 7 1
3 1 8 ar
4 2 11 ar
5 2 15 ar
6 3 4 ar
7 3 8 ar
8 3 26 1
9 4 5 ar
10 4 29 1
11 5 6 ar
12 5 9 1
13 6 10 1
14 7 30 1
15 7 31 1
16 7 32 1
17 8 33 1
18 9 34 1
19 9 35 1
20 9 36 1
21 10 13 1
22 10 37 1
23 11 12 ar
24 11 38 1
25 12 13 ar
26 12 39 1
27 13 14 ar
28 14 15 ar
29 15 16 1
30 16 20 1
31 16 40 1
32 17 18 ar
33 17 22 ar
34 17 24 1
35 18 19 ar
36 18 41 1
37 19 20 ar
38 19 42 1
39 20 21 ar
40 21 22 ar
41 21 43 1
42 22 44 1
43 23 24 3
44 25 26 2
45 25 28 1
46 25 45 1
47 26 46 1
48 27 28 3
@<TRIPOS>SUBSTRUCTURE
1 T27 1
