# Name: FMM
# Created by ModelServer 0.9.10

# model_server_result.job_id: T6DhfHICCc4LHqCQm4ZAag
# model_server_result.datetime_utc: 2023-11-02 08:01:39
# model_server_result.server_version: 0.9.10
# model_server_result.query_name: ligand
# model_server_result.source_id: pdb-bcif
# model_server_result.entry_id: 1xkk

# model_server_params.name: atom_site
# model_server_params.value: {"label_asym_id":"D","auth_seq_id":91}

# model_server_stats.io_time_ms: 3
# model_server_stats.parse_time_ms: 30
# model_server_stats.create_model_time_ms: 7
# model_server_stats.query_time_ms: 201
# model_server_stats.encode_time_ms: 1
# model_server_stats.element_count: 40

@<TRIPOS>MOLECULE
FMM
40 44 1
****
****

@<TRIPOS>ATOM
1 C1 22.604 34.487 31.141 C.3 1 FMM 0.000
2 S2 24.036 33.465 31.350 S.o2 1 FMM 0.000
3 O3 25.053 34.204 32.067 O.2 1 FMM 0.000
4 O4 24.543 33.077 30.053 O.2 1 FMM 0.000
5 C5 23.587 31.980 32.291 C.3 1 FMM 0.000
6 C6 22.061 31.836 32.324 C.3 1 FMM 0.000
7 N7 21.569 32.184 33.665 N.3 1 FMM 0.000
8 C8 20.914 31.019 34.265 C.3 1 FMM 0.000
9 C9 19.416 31.208 34.223 C.ar 1 FMM 0.000
10 C10 18.674 30.977 33.121 C.ar 1 FMM 0.000
11 C11 17.445 31.237 33.421 C.ar 1 FMM 0.000
12 C12 17.409 31.645 34.731 C.ar 1 FMM 0.000
13 O13 18.655 31.653 35.363 O.3 1 FMM 0.000
14 C14 16.176 32.058 35.407 C.ar 1 FMM 0.000
15 C15 14.958 31.986 34.735 C.ar 1 FMM 0.000
16 C16 13.807 32.402 35.359 C.ar 1 FMM 0.000
17 C17 13.849 32.890 36.664 C.ar 1 FMM 0.000
18 N18 12.683 33.305 37.276 N.ar 1 FMM 0.000
19 C19 12.708 33.790 38.568 C.ar 1 FMM 0.000
20 N20 13.899 33.863 39.260 N.ar 1 FMM 0.000
21 C21 15.077 33.452 38.668 C.ar 1 FMM 0.000
22 N22 16.282 33.527 39.366 N.pl3 1 FMM 0.000
23 C23 16.332 33.843 40.735 C.ar 1 FMM 0.000
24 C24 17.118 34.909 41.178 C.ar 1 FMM 0.000
25 C25 17.164 35.215 42.535 C.ar 1 FMM 0.000
26 C26 16.428 34.457 43.438 C.ar 1 FMM 0.000
27 O27 16.446 34.747 44.828 O.3 1 FMM 0.000
28 C28 17.065 36.002 45.143 C.3 1 FMM 0.000
29 C29 16.085 37.181 44.984 C.ar 1 FMM 0.000
30 C30 16.519 38.462 45.246 C.ar 1 FMM 0.000
31 C31 15.653 39.527 45.102 C.ar 1 FMM 0.000
32 C32 14.354 39.312 44.693 C.ar 1 FMM 0.000
33 C33 13.916 38.036 44.429 C.ar 1 FMM 0.000
34 F34 12.679 37.837 44.035 F 1 FMM 0.000
35 C35 14.772 36.966 44.573 C.ar 1 FMM 0.000
36 C36 15.665 33.415 42.999 C.ar 1 FMM 0.000
37 CL3 14.784 32.514 44.128 CL 1 FMM 0.000
38 C38 15.607 33.098 41.660 C.ar 1 FMM 0.000
39 C39 15.053 32.959 37.349 C.ar 1 FMM 0.000
40 C40 16.220 32.545 36.731 C.ar 1 FMM 0.000
@<TRIPOS>BOND
1 1 2 1
2 2 3 2
3 2 4 2
4 2 5 1
5 5 6 1
6 6 7 1
7 7 8 1
8 8 9 1
9 9 10 ar
10 9 13 ar
11 10 11 ar
12 11 12 ar
13 12 13 ar
14 12 14 ar
15 14 15 ar
16 14 40 ar
17 15 16 ar
18 16 17 ar
19 17 18 ar
20 17 39 ar
21 18 19 ar
22 19 20 ar
23 20 21 ar
24 21 22 1
25 21 39 ar
26 22 23 1
27 23 24 ar
28 23 38 ar
29 24 25 ar
30 25 26 ar
31 26 27 1
32 26 36 ar
33 27 28 1
34 28 29 1
35 29 30 ar
36 29 35 ar
37 30 31 ar
38 31 32 ar
39 32 33 ar
40 33 34 1
41 33 35 ar
42 36 37 1
43 36 38 ar
44 39 40 ar
@<TRIPOS>SUBSTRUCTURE
1 FMM 1
